test_cases/DC_overlay_grid.json
{"busdc":{"4":{"Vdc":1,"name":"Bus_dc_4","bus_type":1,"Cdc":0,"qd":0.0,"gs":0.0,"bs":0.0,"source_id":["busdc",4],"area":2,"busdc_i":4,"index":4,"vm":1.0,"Vdcmax":1.1,"Vdcmin":0.9,"pd":0.0,"Pdc":0},"1":{"Vdc":1,"name":"Bus_dc_1","bus_type":1,"Cdc":0,"qd":0.0,"gs":0.0,"bs":0.0,"source_id":["busdc",1],"area":2,"busdc_i":1,"index":1,"vm":1.0,"Vdcmax":1.1,"Vdcmin":0.9,"pd":0.0,"Pdc":0},"5":{"Vdc":1,"name":"Bus_dc_5","bus_type":1,"Cdc":0,"qd":0.0,"gs":0.0,"bs":0.0,"source_id":["busdc",5],"area":2,"busdc_i":5,"index":5,"vm":1.0,"Vdcmax":1.1,"Vdcmin":0.9,"pd":0.0,"Pdc":0},"2":{"Vdc":1,"name":"Bus_dc_2","bus_type":1,"Cdc":0,"qd":0.0,"gs":0.0,"bs":0.0,"source_id":["busdc",2],"area":2,"busdc_i":2,"index":2,"vm":1.0,"Vdcmax":1.1,"Vdcmin":0.9,"pd":0.0,"Pdc":0},"6":{"Vdc":1,"name":"Bus_dc_6","bus_type":1,"Cdc":0,"qd":0.0,"gs":0.0,"bs":0.0,"source_id":["busdc",6],"area":2,"busdc_i":6,"index":6,"vm":1.0,"Vdcmax":1.1,"Vdcmin":0.9,"pd":0.0,"Pdc":0},"3":{"Vdc":1,"name":"Bus_dc_3","bus_type":1,"Cdc":0,"qd":0.0,"gs":0.0,"bs":0.0,"source_id":["busdc",3],"area":2,"busdc_i":3,"index":3,"vm":1.0,"Vdcmax":1.1,"Vdcmin":0.9,"pd":0.0,"Pdc":0}},"base_kv_AC":380,"bus":{"4":{"bus_i":4,"name":"Bus_4","bus_type":1,"qd":0.0,"gs":0.0,"bs":0.0,"vmax":1.1,"source_id":["bus",4],"area":1,"vmin":0.9,"index":4,"va":1.0,"vm":1.0,"base_kv":380,"pd":0.0},"1":{"bus_i":1,"name":"Bus_1","bus_type":1,"qd":0.0,"gs":0.0,"bs":0.0,"vmax":1.1,"source_id":["bus",1],"area":1,"vmin":0.9,"index":1,"va":1.0,"vm":1.0,"base_kv":380,"pd":0.0},"5":{"bus_i":5,"name":"Bus_5","bus_type":1,"qd":0.0,"gs":0.0,"bs":0.0,"vmax":1.1,"source_id":["bus",5],"area":1,"vmin":0.9,"index":5,"va":1.0,"vm":1.0,"base_kv":380,"pd":0.0},"2":{"bus_i":2,"name":"Bus_2","bus_type":1,"qd":0.0,"gs":0.0,"bs":0.0,"vmax":1.1,"source_id":["bus",2],"area":1,"vmin":0.9,"index":2,"va":1.0,"vm":1.0,"base_kv":380,"pd":0.0},"6":{"bus_i":6,"name":"Bus_6","bus_type":1,"qd":0.0,"gs":0.0,"bs":0.0,"vmax":1.1,"source_id":["bus",6],"area":1,"vmin":0.9,"index":6,"va":1.0,"vm":1.0,"base_kv":380,"pd":0.0},"3":{"bus_i":3,"name":"Bus_3","bus_type":3,"qd":0.0,"gs":0.0,"bs":0.0,"vmax":1.1,"source_id":["bus",3],"area":1,"vmin":0.9,"index":3,"va":1.0,"vm":1.0,"base_kv":380,"pd":0.0}},"dcpol":2,"source_type":"matpower","name":"DC_overlay_grid","dcline":[],"branch":{"8":{"br_r":0.9023024065096954,"rate_a":81.5,"ratio":1,"shift":0.0,"rate_b":81.5,"br_x":17.94364612188366,"rate_c":81.5,"g_to":0.0,"g_fr":0.0,"b_fr":0.0,"source_id":["branch",8],"f_bus":5,"br_status":1,"t_bus":6,"b_to":0.0,"index":8,"angmin":-3.141592653589793,"angmax":3.141592653589793,"transformer":false,"tap":1.0,"type":"AC_line"},"4":{"br_r":0.7586132271468145,"rate_a":63.35,"ratio":1,"shift":0.0,"rate_b":63.35,"br_x":15.086166135734073,"rate_c":63.35,"g_to":0.0,"g_fr":0.0,"b_fr":0.0,"source_id":["branch",4],"f_bus":2,"br_status":1,"t_bus":3,"b_to":0.0,"index":4,"angmin":-3.141592653589793,"angmax":3.141592653589793,"transformer":false,"tap":1.0,"type":"AC_line"},"1":{"br_r":7.323407202216067,"rate_a":28.0,"ratio":1,"shift":0.0,"rate_b":28.0,"br_x":365.8050114265928,"rate_c":28.0,"g_to":0.0,"g_fr":0.0,"b_fr":0.0,"source_id":["branch",1],"f_bus":1,"br_status":1,"t_bus":2,"b_to":0.0,"index":1,"angmin":-3.141592653589793,"angmax":3.141592653589793,"transformer":false,"tap":1.0,"type":"AC_line"},"5":{"br_r":0.7969055574792243,"rate_a":58.0,"ratio":1,"shift":0.0,"rate_b":58.0,"br_x":39.80551726108033,"rate_c":58.0,"g_to":0.0,"g_fr":0.0,"b_fr":0.0,"source_id":["branch",5],"f_bus":3,"br_status":1,"t_bus":4,"b_to":0.0,"index":5,"angmin":-3.141592653589793,"angmax":3.141592653589793,"transformer":false,"tap":1.0,"type":"AC_line"},"2":{"br_r":3.0921052631578947,"rate_a":48.0,"ratio":1,"shift":0.0,"rate_b":48.0,"br_x":68.64489078947369,"rate_c":48.0,"g_to":0.0,"g_fr":0.0,"b_fr":0.0,"source_id":["branch",2],"f_bus":1,"br_status":1,"t_bus":3,"b_to":0.0,"index":2,"angmin":-3.141592653589793,"angmax":3.141592653589793,"transformer":false,"tap":1.0,"type":"AC_line"},"6":{"br_r":2.0822366343490306,"rate_a":27.0,"ratio":1,"shift":0.0,"rate_b":27.0,"br_x":46.22576198060943,"rate_c":27.0,"g_to":0.0,"g_fr":0.0,"b_fr":0.0,"source_id":["branch",6],"f_bus":3,"br_status":1,"t_bus":5,"b_to":0.0,"index":6,"angmin":-3.141592653589793,"angmax":3.141592653589793,"transformer":false,"tap":1.0,"type":"AC_line"},"7":{"br_r":0.5783989785318561,"rate_a":89.0,"ratio":1,"shift":0.0,"rate_b":89.0,"br_x":10.272391360803324,"rate_c":89.0,"g_to":0.0,"g_fr":0.0,"b_fr":0.0,"source_id":["branch",7],"f_bus":3,"br_status":1,"t_bus":6,"b_to":0.0,"index":7,"angmin":-3.141592653589793,"angmax":3.141592653589793,"transformer":false,"tap":1.0,"type":"AC_line"},"3":{"br_r":1.6274238227146816,"rate_a":40.0,"ratio":1,"shift":0.0,"rate_b":40.0,"br_x":28.903112188365654,"rate_c":40.0,"g_to":0.0,"g_fr":0.0,"b_fr":0.0,"source_id":["branch",3],"f_bus":1,"br_status":1,"t_bus":4,"b_to":0.0,"index":3,"angmin":-3.141592653589793,"angmax":3.141592653589793,"transformer":false,"tap":1.0,"type":"AC_line"}},"gen":{"24":{"model":2,"name":"Conventional_gen_6","marginal_cost":2.0,"gen_bus":6,"pmax":5000.0,"vg":1.0,"source_id":["gen",24],"index":24,"cost":[10.0,0.0],"qmax":2500.0,"gen_status":1,"qmin":-2500.0,"co2_add_on":1.0,"type":"Conventional","ncost":2,"pmin":0.0},"4":{"model":2,"name":"Solar_PV_4","marginal_cost":0.0,"gen_bus":4,"pmax":5160.0,"vg":1.0,"source_id":["gen",4],"index":4,"cost":[0.0,0.0],"qmax":2580.0,"gen_status":1,"qmin":-2580.0,"co2_add_on":0.0,"type":"Solar PV","ncost":2,"pmin":0.0},"1":{"model":2,"name":"Solar_PV_1","marginal_cost":0.0,"gen_bus":1,"pmax":1960.0,"vg":1.0,"source_id":["gen",1],"index":1,"cost":[0.0,0.0],"qmax":980.0,"gen_status":1,"qmin":-980.0,"co2_add_on":0.0,"type":"Solar PV","ncost":2,"pmin":0.0},"12":{"model":2,"name":"Onshore_Wind_6","marginal_cost":0.0,"gen_bus":6,"pmax":880.0,"vg":1.0,"source_id":["gen",12],"index":12,"cost":[0.0,0.0],"qmax":440.0,"gen_status":1,"qmin":-440.0,"co2_add_on":0.0,"type":"Onshore Wind","ncost":2,"pmin":0.0},"20":{"model":2,"name":"Conventional_gen_2","marginal_cost":2.0,"gen_bus":2,"pmax":5000.0,"vg":1.0,"source_id":["gen",20],"index":20,"cost":[10.0,0.0],"qmax":2500.0,"gen_status":1,"qmin":-2500.0,"co2_add_on":1.0,"type":"Conventional","ncost":2,"pmin":0.0},"2":{"model":2,"name":"Solar_PV_2","marginal_cost":0.0,"gen_bus":2,"pmax":640.0,"vg":1.0,"source_id":["gen",2],"index":2,"cost":[0.0,0.0],"qmax":320.0,"gen_status":1,"qmin":-320.0,"co2_add_on":0.0,"type":"Solar PV","ncost":2,"pmin":0.0},"6":{"model":2,"name":"Solar_PV_6","marginal_cost":0.0,"gen_bus":6,"pmax":3090.0,"vg":1.0,"source_id":["gen",6],"index":6,"cost":[0.0,0.0],"qmax":1545.0,"gen_status":1,"qmin":-1545.0,"co2_add_on":0.0,"type":"Solar PV","ncost":2,"pmin":0.0},"23":{"model":2,"name":"Conventional_gen_5","marginal_cost":2.0,"gen_bus":5,"pmax":5000.0,"vg":1.0,"source_id":["gen",23],"index":23,"cost":[10.0,0.0],"qmax":2500.0,"gen_status":1,"qmin":-2500.0,"co2_add_on":1.0,"type":"Conventional","ncost":2,"pmin":0.0},"22":{"model":2,"name":"Conventional_gen_4","marginal_cost":2.0,"gen_bus":4,"pmax":5000.0,"vg":1.0,"source_id":["gen",22],"index":22,"cost":[10.0,0.0],"qmax":2500.0,"gen_status":1,"qmin":-2500.0,"co2_add_on":1.0,"type":"Conventional","ncost":2,"pmin":0.0},"11":{"model":2,"name":"Onshore_Wind_5","marginal_cost":0.0,"gen_bus":5,"pmax":1350.0,"vg":1.0,"source_id":["gen",11],"index":11,"cost":[0.0,0.0],"qmax":675.0,"gen_status":1,"qmin":-675.0,"co2_add_on":0.0,"type":"Onshore Wind","ncost":2,"pmin":0.0},"13":{"model":2,"name":"Offshore_Wind_1","marginal_cost":0.0,"gen_bus":1,"pmax":1080.0,"vg":1.0,"source_id":["gen",13],"index":13,"cost":[0.0,0.0],"qmax":540.0,"gen_status":1,"qmin":-540.0,"co2_add_on":0.0,"type":"Offshore Wind","ncost":2,"pmin":0.0},"5":{"model":2,"name":"Solar_PV_5","marginal_cost":0.0,"gen_bus":5,"pmax":5050.0,"vg":1.0,"source_id":["gen",5],"index":5,"cost":[0.0,0.0],"qmax":2525.0,"gen_status":1,"qmin":-2525.0,"co2_add_on":0.0,"type":"Solar PV","ncost":2,"pmin":0.0},"15":{"model":2,"name":"Offshore_Wind_3","marginal_cost":0.0,"gen_bus":3,"pmax":2100.0,"vg":1.0,"source_id":["gen",15],"index":15,"cost":[0.0,0.0],"qmax":1050.0,"gen_status":1,"qmin":-1050.0,"co2_add_on":0.0,"type":"Offshore Wind","ncost":2,"pmin":0.0},"16":{"model":2,"name":"Offshore_Wind_4","marginal_cost":0.0,"gen_bus":4,"pmax":250.0,"vg":1.0,"source_id":["gen",16],"index":16,"cost":[0.0,0.0],"qmax":125.0,"gen_status":1,"qmin":-125.0,"co2_add_on":0.0,"type":"Offshore Wind","ncost":2,"pmin":0.0},"14":{"model":2,"name":"Offshore_Wind_2","marginal_cost":0.0,"gen_bus":2,"pmax":90.0,"vg":1.0,"source_id":["gen",14],"index":14,"cost":[0.0,0.0],"qmax":45.0,"gen_status":1,"qmin":-45.0,"co2_add_on":0.0,"type":"Offshore Wind","ncost":2,"pmin":0.0},"21":{"model":2,"name":"Conventional_gen_3","marginal_cost":2.0,"gen_bus":3,"pmax":5000.0,"vg":1.0,"source_id":["gen",21],"index":21,"cost":[10.0,0.0],"qmax":2500.0,"gen_status":1,"qmin":-2500.0,"co2_add_on":1.0,"type":"Conventional","ncost":2,"pmin":0.0},"7":{"model":2,"name":"Onshore_Wind_1","marginal_cost":0.0,"gen_bus":1,"pmax":540.0,"vg":1.0,"source_id":["gen",7],"index":7,"cost":[0.0,0.0],"qmax":270.0,"gen_status":1,"qmin":-270.0,"co2_add_on":0.0,"type":"Onshore Wind","ncost":2,"pmin":0.0},"8":{"model":2,"name":"Onshore_Wind_2","marginal_cost":0.0,"gen_bus":2,"pmax":1090.0,"vg":1.0,"source_id":["gen",8],"index":8,"cost":[0.0,0.0],"qmax":545.0,"gen_status":1,"qmin":-545.0,"co2_add_on":0.0,"type":"Onshore Wind","ncost":2,"pmin":0.0},"17":{"model":2,"name":"Offshore_Wind_5","marginal_cost":0.0,"gen_bus":5,"pmax":40.0,"vg":1.0,"source_id":["gen",17],"index":17,"cost":[0.0,0.0],"qmax":20.0,"gen_status":1,"qmin":-20.0,"co2_add_on":0.0,"type":"Offshore Wind","ncost":2,"pmin":0.0},"10":{"model":2,"name":"Onshore_Wind_4","marginal_cost":0.0,"gen_bus":4,"pmax":2180.0,"vg":1.0,"source_id":["gen",10],"index":10,"cost":[0.0,0.0],"qmax":1090.0,"gen_status":1,"qmin":-1090.0,"co2_add_on":0.0,"type":"Onshore Wind","ncost":2,"pmin":0.0},"19":{"model":2,"name":"Conventional_gen_1","marginal_cost":2.0,"gen_bus":1,"pmax":5000.0,"vg":1.0,"source_id":["gen",19],"index":19,"cost":[10.0,0.0],"qmax":2500.0,"gen_status":1,"qmin":-2500.0,"co2_add_on":1.0,"type":"Conventional","ncost":2,"pmin":0.0},"9":{"model":2,"name":"Onshore_Wind_3","marginal_cost":0.0,"gen_bus":3,"pmax":1970.0,"vg":1.0,"source_id":["gen",9],"index":9,"cost":[0.0,0.0],"qmax":985.0,"gen_status":1,"qmin":-985.0,"co2_add_on":0.0,"type":"Onshore Wind","ncost":2,"pmin":0.0},"18":{"model":2,"name":"Offshore_Wind_6","marginal_cost":0.0,"gen_bus":6,"pmax":190.0,"vg":1.0,"source_id":["gen",18],"index":18,"cost":[0.0,0.0],"qmax":95.0,"gen_status":1,"qmin":-95.0,"co2_add_on":0.0,"type":"Offshore Wind","ncost":2,"pmin":0.0},"3":{"model":2,"name":"Solar_PV_3","marginal_cost":0.0,"gen_bus":3,"pmax":5600.0,"vg":1.0,"source_id":["gen",3],"index":3,"cost":[0.0,0.0],"qmax":2800.0,"gen_status":1,"qmin":-2800.0,"co2_add_on":0.0,"type":"Solar PV","ncost":2,"pmin":0.0}},"storage":{},"switch":{},"baseMVA":100,"base_kv_DC":525,"convdc":{"4":{"dVdcset":0,"Vtar":1,"Pacmax":300.0,"ratio":1,"filter":1,"reactor":1,"Vdcset":1.0079,"Vmmax":1.1,"xtf":0.01,"Imax":1.118033988749895,"Qacrated":0.5,"status":1,"Pdcset":-0.586274,"islcc":0,"LossA":0.01103,"Qacmin":-300.0,"rc":0.01,"source_id":["convdc",4],"rtf":0.01,"xc":0.01,"busdc_i":4,"busac_i":4,"tm":1,"type_dc":1,"Q_g":-0.4,"LossB":0.0014843759094817334,"basekVac":345,"LossCrec":0.0008079535111671216,"droop":0.005,"Pacmin":-300.0,"Qacmax":300.0,"index":4,"type_ac":1,"Vmmin":0.9,"P_g":-0.6,"transformer":1,"Pg":0.0,"bf":0.01,"LossCinv":0.0008079535111671216,"Pacrated":1.0},"1":{"dVdcset":0,"Vtar":1,"Pacmax":180.0,"ratio":1,"filter":1,"reactor":1,"Vdcset":1.0079,"Vmmax":1.1,"xtf":0.01,"Imax":1.118033988749895,"Qacrated":0.5,"status":1,"Pdcset":-0.586274,"islcc":0,"LossA":0.01103,"Qacmin":-180.0,"rc":0.01,"source_id":["convdc",1],"rtf":0.01,"xc":0.01,"busdc_i":1,"busac_i":1,"tm":1,"type_dc":1,"Q_g":-0.4,"LossB":0.0014843759094817334,"basekVac":345,"LossCrec":0.0008079535111671216,"droop":0.005,"Pacmin":-180.0,"Qacmax":180.0,"index":1,"type_ac":1,"Vmmin":0.9,"P_g":-0.6,"transformer":1,"Pg":0.0,"bf":0.01,"LossCinv":0.0008079535111671216,"Pacrated":1.0},"5":{"dVdcset":0,"Vtar":1,"Pacmax":240.0,"ratio":1,"filter":1,"reactor":1,"Vdcset":1.0079,"Vmmax":1.1,"xtf":0.01,"Imax":1.118033988749895,"Qacrated":0.5,"status":1,"Pdcset":-0.586274,"islcc":0,"LossA":0.01103,"Qacmin":-240.0,"rc":0.01,"source_id":["convdc",5],"rtf":0.01,"xc":0.01,"busdc_i":5,"busac_i":5,"tm":1,"type_dc":1,"Q_g":-0.4,"LossB":0.0014843759094817334,"basekVac":345,"LossCrec":0.0008079535111671216,"droop":0.005,"Pacmin":-240.0,"Qacmax":240.0,"index":5,"type_ac":1,"Vmmin":0.9,"P_g":-0.6,"transformer":1,"Pg":0.0,"bf":0.01,"LossCinv":0.0008079535111671216,"Pacrated":1.0},"2":{"dVdcset":0,"Vtar":1,"Pacmax":60.0,"ratio":1,"filter":1,"reactor":1,"Vdcset":1.0079,"Vmmax":1.1,"xtf":0.01,"Imax":1.118033988749895,"Qacrated":0.5,"status":1,"Pdcset":-0.586274,"islcc":0,"LossA":0.01103,"Qacmin":-60.0,"rc":0.01,"source_id":["convdc",2],"rtf":0.01,"xc":0.01,"busdc_i":2,"busac_i":2,"tm":1,"type_dc":1,"Q_g":-0.4,"LossB":0.0014843759094817334,"basekVac":345,"LossCrec":0.0008079535111671216,"droop":0.005,"Pacmin":-60.0,"Qacmax":60.0,"index":2,"type_ac":1,"Vmmin":0.9,"P_g":-0.6,"transformer":1,"Pg":0.0,"bf":0.01,"LossCinv":0.0008079535111671216,"Pacrated":1.0},"6":{"dVdcset":0,"Vtar":1,"Pacmax":140.0,"ratio":1,"filter":1,"reactor":1,"Vdcset":1.0079,"Vmmax":1.1,"xtf":0.01,"Imax":1.118033988749895,"Qacrated":0.5,"status":1,"Pdcset":-0.586274,"islcc":0,"LossA":0.01103,"Qacmin":-140.0,"rc":0.01,"source_id":["convdc",6],"rtf":0.01,"xc":0.01,"busdc_i":6,"busac_i":6,"tm":1,"type_dc":1,"Q_g":-0.4,"LossB":0.0014843759094817334,"basekVac":345,"LossCrec":0.0008079535111671216,"droop":0.005,"Pacmin":-140.0,"Qacmax":140.0,"index":6,"type_ac":1,"Vmmin":0.9,"P_g":-0.6,"transformer":1,"Pg":0.0,"bf":0.01,"LossCinv":0.0008079535111671216,"Pacrated":1.0},"3":{"dVdcset":0,"Vtar":1,"Pacmax":400.0,"ratio":1,"filter":1,"reactor":1,"Vdcset":1.0079,"Vmmax":1.1,"xtf":0.01,"Imax":1.118033988749895,"Qacrated":0.5,"status":1,"Pdcset":-0.586274,"islcc":0,"LossA":0.01103,"Qacmin":-400.0,"rc":0.01,"source_id":["convdc",3],"rtf":0.01,"xc":0.01,"busdc_i":3,"busac_i":3,"tm":1,"type_dc":1,"Q_g":-0.4,"LossB":0.0014843759094817334,"basekVac":345,"LossCrec":0.0008079535111671216,"droop":0.005,"Pacmin":-400.0,"Qacmax":400.0,"index":3,"type_ac":1,"Vmmin":0.9,"P_g":-0.6,"transformer":1,"Pg":0.0,"bf":0.01,"LossCinv":0.0008079535111671216,"Pacrated":1.0}},"per_unit":true,"shunt":{},"load":{"4":{"cosphi":0.9,"source_id":["bus",4],"load_bus":4,"status":1,"pmax":1532.6078221399898,"pavg":1097.2889679973177,"qd":334.02413083940866,"pd":766.3039110699949,"index":4},"1":{"cosphi":0.9,"source_id":["bus",1],"load_bus":1,"status":1,"pmax":747.57046915,"pavg":505.8948464631425,"qd":162.929206410007,"pd":373.785234575,"index":1},"5":{"cosphi":0.9,"source_id":["bus",5],"load_bus":5,"status":1,"pmax":1964.3116602169998,"pavg":1586.9143708026852,"qd":428.11180102522525,"pd":982.1558301084999,"index":5},"2":{"cosphi":0.9,"source_id":["bus",2],"load_bus":2,"status":1,"pmax":867.85527203,"pavg":615.5657387331631,"qd":189.1446714198885,"pd":433.927636015,"index":2},"6":{"cosphi":0.9,"source_id":["bus",6],"load_bus":6,"status":1,"pmax":936.0709356,"pavg":674.5056350763447,"qd":204.01193061329846,"pd":468.0354678,"index":6},"3":{"cosphi":0.9,"source_id":["bus",3],"load_bus":3,"status":1,"pmax":1668.06016344999,"pavg":1284.6325923933125,"qd":363.54528421122217,"pd":834.030081724995,"index":3}},"branchdc":{"8":{"c":0.0,"ratio":1,"r":1.5867382271468147,"status":1,"rateB":60.0,"fbusdc":5,"source_id":["branchdc",8],"rateA":60.0,"l":0.0,"index":8,"rateC":60.0,"tbusdc":6,"type":"DC_line"},"4":{"c":0.0,"ratio":1,"r":0.756752077562327,"status":1,"rateB":100.0,"fbusdc":3,"source_id":["branchdc",4],"rateA":100.0,"l":0.0,"index":4,"rateC":100.0,"tbusdc":4,"type":"DC_line"},"1":{"c":0.0,"ratio":1,"r":1.1595394736842106,"status":1,"rateB":80.0,"fbusdc":1,"source_id":["branchdc",1],"rateA":80.0,"l":0.0,"index":1,"rateC":80.0,"tbusdc":3,"type":"DC_line"},"5":{"c":0.0,"ratio":1,"r":1.09851108033241,"status":1,"rateB":80.0,"fbusdc":3,"source_id":["branchdc",5],"rateA":80.0,"l":0.0,"index":5,"rateC":80.0,"tbusdc":5,"type":"DC_line"},"2":{"c":0.0,"ratio":1,"r":0.48822714681440443,"status":1,"rateB":100.0,"fbusdc":1,"source_id":["branchdc",2],"rateA":100.0,"l":0.0,"index":2,"rateC":100.0,"tbusdc":4,"type":"DC_line"},"6":{"c":0.0,"ratio":1,"r":0.762854916897507,"status":1,"rateB":80.0,"fbusdc":3,"source_id":["branchdc",6],"rateA":80.0,"l":0.0,"index":6,"rateC":80.0,"tbusdc":6,"type":"DC_line"},"7":{"c":0.0,"ratio":1,"r":0.8543975069252078,"status":1,"rateB":100.0,"fbusdc":4,"source_id":["branchdc",7],"rateA":100.0,"l":0.0,"index":7,"rateC":100.0,"tbusdc":5,"type":"DC_line"},"3":{"c":0.0,"ratio":1,"r":1.3833102493074794,"status":1,"rateB":60.0,"fbusdc":2,"source_id":["branchdc",3],"rateA":60.0,"l":0.0,"index":3,"rateC":60.0,"tbusdc":3,"type":"DC_line"}},"Z_base":1.444}